
Circuit: t1

Doing analysis at TEMP = 27.000000 and TNOM = 27.000000



No. of Data Rows : 1
****************
Operating point
****************
op_TAB
@gb[i] = -2.24128e-04
@id[current] = (  )
@r1[i] = -2.14309e-04
@r2[i] = -2.24128e-04
@r3[i] = -9.81934e-06
@r4[i] = 1.183454e-03
@r5[i] = 1.248524e-03
@r6[i] = -9.69145e-04
@r7[i] = -9.69145e-04
hc#branch = 5.525045e-05
n0 = 4.894946e+00
n1 = -2.98689e+00
n2 = 8.700499e+00
n3 = 4.397911e+00
n4 = 4.864258e+00
n5 = 5.082120e+00
n7 = -2.00234e+00
n8 = -2.00234e+00
v3#branch = 9.691453e-04
va#branch = -2.14309e-04
op_END
